grid_simulations/tests/Result_no_control/output_current_11.csv
# Result_no_control/output_current_11.csv run at 2000-01-01 11:00:00 EST on 907 links
link_name,currA_mag,currA_angle,currB_mag,currB_angle,currC_mag,currC_angle
Source_Impedance,19.470638,-0.357029,16.013160,3.775450,17.141796,1.887602
TR1,19.470638,-0.357029,16.013160,3.775450,17.141796,1.887602
LINE1,538.597546,-0.837214,483.058160,3.325636,364.894684,1.247194
LINE2,538.597546,-0.837214,483.058160,3.325636,364.894684,1.247194
LINE3,538.597546,-0.837214,483.058160,3.325636,364.894684,1.247194
LINE4,538.597546,-0.837214,483.058160,3.325636,364.894684,1.247194
LINE5,538.597546,-0.837214,483.058160,3.325636,364.894684,1.247194
LINE6,538.597546,-0.837214,483.058160,3.325636,364.894684,1.247194
LINE7,538.597546,-0.837214,483.058160,3.325636,364.894684,1.247194
LINE8,538.597546,-0.837214,483.058160,3.325636,364.894684,1.247194
LINE9,538.597546,-0.837214,483.058160,3.325636,364.894684,1.247194
LINE10,538.597546,-0.837214,483.058160,3.325636,364.894684,1.247194
LINE11,538.597546,-0.837214,483.058160,3.325636,364.894684,1.247194
LINE12,538.597546,-0.837214,483.058160,3.325636,364.894684,1.247194
LINE13,538.597546,-0.837214,483.058160,3.325636,364.894684,1.247194
LINE14,538.597546,-0.837214,483.058160,3.325636,364.894684,1.247194
LINE15,0.000000,-0.327817,0.000000,3.345893,0.000000,1.549510
LINE16,538.597546,-0.837214,483.058160,3.325636,364.894684,1.247194
LINE17,0.000000,-1.007726,0.000000,3.199802,0.000000,1.550672
LINE18,538.597546,-0.837214,483.058160,3.325636,364.894684,1.247194
LINE19,0.000000,3.580308,0.000000,3.116661,0.000000,1.561488
LINE20,538.597546,-0.837214,483.058160,3.325636,364.894684,1.247194
LINE21,0.000000,3.475431,0.000000,3.361639,0.000000,1.555630
LINE22,538.597546,-0.837214,483.058160,3.325636,364.894684,1.247194
LINE23,0.000000,4.687457,0.000000,3.811399,0.000000,1.558364
LINE24,538.597546,-0.837214,483.058160,3.325636,364.894684,1.247194
LINE25,0.000000,4.687457,0.000000,3.782630,0.000000,1.559535
LINE26,47.551848,-0.856532,0.000000,-1.216861,0.000000,1.512367
LINE27,491.055429,-0.835343,483.058160,3.325636,364.894684,1.247194
LINE28,0.000000,-1.317429,0.000000,3.782630,0.000000,1.556281
LINE29,23.774081,-0.856551,0.000000,3.600031,0.000000,4.687237
LINE30,23.777767,-0.856512,0.000000,-1.242886,0.000000,1.510957
LINE31,491.055429,-0.835343,483.058160,3.325636,364.894684,1.247194
LINE32,0.000000,-1.329476,0.000000,3.831752,0.000000,1.553007
LINE33,23.774081,-0.856551,0.000000,0.343705,0.000000,1.598217
LINE34,23.777767,-0.856512,0.000000,0.128639,0.000000,1.461281
LINE35,0.000000,0.740553,48.049891,3.327905,0.000000,1.460274
LINE36,491.055429,-0.835343,435.008406,3.325385,364.894684,1.247194
LINE37,0.000000,-1.151309,0.000000,3.839640,0.000000,1.551913
LINE38,23.777767,-0.856512,0.000000,3.784524,0.000000,1.539441
LINE39,0.000000,0.586667,24.025343,3.327909,0.000000,1.468407
LINE40,0.000000,1.135795,24.024548,3.327901,0.000000,4.640033
LINE41,491.055429,-0.835343,435.008406,3.325385,364.894684,1.247194
LINE42,0.000000,4.399573,0.000000,-0.343749,0.000000,4.647043
LINE43,0.000000,4.687457,0.000000,3.675260,0.000000,1.554793
LINE44,23.777767,-0.856512,0.000000,2.921577,0.000000,1.500531
LINE45,0.000000,2.906781,24.025343,3.327909,0.000000,0.776764
LINE46,0.000000,-0.386015,24.024548,3.327901,0.000000,1.535851
LINE47,491.055429,-0.835343,435.008406,3.325385,364.894684,1.247194
LINE48,0.000000,4.518230,0.000000,-0.246701,0.000000,-1.560314
LINE49,0.000000,4.687457,0.000000,4.099454,0.000000,1.545864
LINE50,23.777767,-0.856512,0.000000,0.064376,0.000000,1.526051
LINE51,0.000000,1.674006,24.025343,3.327909,0.000000,-1.516641
LINE52,491.055429,-0.835343,435.008406,3.325385,364.894684,1.247194
LINE53,0.000000,-1.521341,0.000000,-0.575988,0.000000,1.075129
LINE54,0.000000,4.377609,0.000000,0.365697,0.000000,-1.499557
LINE55,0.000000,4.223809,0.000000,4.147038,0.000000,1.547285
LINE56,23.777767,-0.856512,0.000000,-0.231005,0.000000,1.624706
LINE57,0.000000,0.535720,24.025343,3.327909,0.000000,-1.340562
LINE58,491.055429,-0.835343,435.008406,3.325385,364.894684,1.247194
LINE59,0.000000,3.876747,0.000000,-0.461779,0.000000,-0.158928
LINE60,0.000000,-1.515476,0.000000,2.966160,0.000000,-1.424657
LINE61,0.000000,4.687457,0.000000,4.687457,0.000000,1.540656
LINE62,23.777767,-0.856512,0.000000,0.428968,0.000000,4.679263
LINE63,0.000000,1.791369,24.025343,3.327909,0.000000,-0.560901
LINE64,441.862898,-0.833968,435.008406,3.325385,364.894684,1.247194
LINE65,49.196704,-0.847698,0.000000,2.538004,0.000000,1.364929
LINE66,0.000000,3.778868,0.000000,-0.409443,0.000000,-1.294156
LINE67,0.000000,-1.448574,0.000000,3.054219,0.000000,-1.500503
LINE68,0.000000,-1.132081,0.000000,4.687457,0.000000,1.532472
LINE69,23.777767,-0.856512,0.000000,0.303416,0.000000,1.463280
LINE70,0.000000,2.923601,24.025343,3.327909,0.000000,-1.325771
LINE71,441.862898,-0.833968,435.008406,3.325385,364.894684,1.247194
LINE72,24.598352,-0.847698,0.000000,3.540614,0.000000,1.532476
LINE73,24.598352,-0.847698,0.000000,3.542353,0.000000,1.667072
LINE74,0.000000,4.255519,0.000000,-0.385216,0.000000,3.176178
LINE75,0.000000,4.675298,0.000000,2.680035,0.000000,-1.366092
LINE76,0.000000,-0.612935,0.000000,-1.496060,0.000000,1.531133
LINE77,0.000000,1.093654,24.025343,3.327909,0.000000,1.499844
LINE78,441.862898,-0.833968,435.008406,3.325385,364.894684,1.247194
LINE79,0.000000,4.148665,0.000000,-0.562057,0.000000,3.361987
LINE80,0.000000,4.678670,0.000000,2.821477,0.000000,-1.383523
LINE81,0.000000,-0.648131,0.000000,-1.405740,0.000000,1.531282
LINE82,0.000000,4.441786,24.025343,3.327909,0.000000,1.583987
LINE83,441.862898,-0.833968,435.008406,3.325385,364.894684,1.247194
LINE84,0.000000,3.598564,0.000000,-0.279999,0.000000,4.159948
LINE85,0.000000,4.640636,0.000000,2.810232,0.000000,-1.385435
LINE86,0.000000,-0.729426,0.000000,-1.529160,0.000000,1.536490
LINE87,441.862898,-0.833968,435.008406,3.325385,364.894684,1.247194
LINE88,0.000000,-0.201631,0.000000,-0.201631,0.000000,2.997100
LINE89,0.000000,-1.551657,0.000000,2.822496,0.000000,-1.376664
LINE90,0.000000,-0.565351,0.000000,-1.415875,0.000000,1.533081
LINE91,441.862898,-0.833968,435.008406,3.325385,364.894684,1.247194
LINE92,0.000000,-1.243342,0.000000,2.107472,0.000000,-1.448972
LINE93,0.000000,-0.024932,0.000000,-1.007726,0.000000,1.540656
LINE94,441.862898,-0.833968,435.008406,3.325385,364.894684,1.247194
LINE95,0.000000,3.808392,0.000000,0.994324,0.000000,-1.531868
LINE96,0.000000,3.116661,0.000000,1.545864,0.000000,-0.024932
LINE97,441.862898,-0.833968,435.008406,3.325385,364.894684,1.247194
LINE98,0.000000,0.805785,0.000000,0.486922,0.000000,4.309007
LINE99,0.000000,1.545864,0.000000,1.545864,0.000000,0.000000
LINE100,441.862898,-0.833968,435.008406,3.325385,364.894684,1.247194
LINE101,0.000000,4.366075,0.000000,1.710386,0.000000,3.964657
LINE102,0.000000,0.000000,0.000000,0.000000,0.000000,0.000000
LINE103,24.884175,-0.844818,74.469627,3.328805,48.088538,1.244941
LINE104,416.980275,-0.833320,360.539305,3.324679,316.806286,1.247536
LINE105,0.000000,3.939033,0.000000,1.585027,0.000000,4.069187
LINE106,24.884175,-0.844818,74.469627,3.328805,48.088538,1.244941
LINE107,416.980275,-0.833320,360.539305,3.324679,316.806286,1.247536
LINE108,0.000000,3.876044,0.000000,1.609214,0.000000,4.491218
LINE109,24.884175,-0.844818,74.469627,3.328805,48.088538,1.244941
LINE110,416.980275,-0.833320,360.539305,3.324679,316.806286,1.247536
LINE111,0.000000,3.881113,0.000000,1.835528,0.000000,4.434839
LINE112,24.884175,-0.844818,74.469627,3.328805,48.088538,1.244941
LINE113,416.980275,-0.833320,360.539305,3.324679,316.806286,1.247536
LINE114,0.000000,3.879071,0.000000,1.838051,0.000000,4.437471
LINE115,24.884175,-0.844818,74.469627,3.328805,48.088538,1.244941
LINE116,25.066619,-0.843296,49.917972,3.329060,48.283258,1.246002
LINE117,391.914983,-0.832682,310.621890,3.323975,268.523094,1.247812
LINE118,0.000000,3.920801,0.000000,1.750922,0.000000,4.423477
LINE119,24.884175,-0.844818,74.469627,3.328805,48.088538,1.244941
LINE120,0.000000,1.926371,0.000000,0.618569,0.000000,4.709775
LINE121,25.066619,-0.843296,49.917972,3.329060,48.283258,1.246002
LINE122,391.914983,-0.832682,310.621890,3.323975,268.523094,1.247812
LINE123,0.000000,4.100245,0.000000,1.679419,0.000000,4.416986
LINE124,24.884175,-0.844818,74.469627,3.328805,48.088538,1.244941
LINE125,0.000000,1.964089,0.000000,0.220047,0.000000,4.712192
LINE126,25.066619,-0.843296,49.917972,3.329060,48.283258,1.246002
LINE127,391.914983,-0.832682,310.621890,3.323975,268.523094,1.247812
LINE128,0.000000,4.018772,0.000000,1.801960,0.000000,4.343521
LINE129,24.884175,-0.844818,74.469627,3.328805,48.088538,1.244941
LINE130,0.000000,2.133867,0.000000,-0.024932,0.000000,4.706986
LINE131,25.066619,-0.843296,0.000000,3.384024,0.000000,1.499175
LINE132,0.000000,2.831912,49.917972,3.329060,48.283258,1.246002
LINE133,391.914983,-0.832682,310.621890,3.323975,268.523094,1.247812
LINE134,0.000000,3.902323,0.000000,1.900291,0.000000,4.310884
LINE135,24.884175,-0.844818,74.469627,3.328805,48.088538,1.244941
LINE136,0.000000,2.133867,0.000000,-0.269911,0.000000,-1.560586
LINE137,25.066619,-0.843296,0.000000,3.405352,0.000000,1.503819
LINE138,0.000000,2.816567,49.917972,3.329060,48.283258,1.246002
LINE139,391.914983,-0.832682,310.621890,3.323975,268.523094,1.247812
LINE140,0.000000,4.010368,0.000000,1.895735,0.000000,4.254831
LINE141,24.884175,-0.844818,74.469627,3.328805,48.088538,1.244941
LINE142,0.000000,1.867615,0.000000,0.333839,0.000000,-1.551486
LINE143,25.066619,-0.843296,0.000000,3.383711,0.000000,1.494929
LINE144,0.000000,2.748832,49.917972,3.329060,48.283258,1.246002
LINE145,391.914983,-0.832682,310.621890,3.323975,268.523094,1.247812
LINE146,0.000000,4.135958,0.000000,0.969789,0.000000,4.004670
LINE147,24.884175,-0.844818,74.469627,3.328805,48.088538,1.244941
LINE148,0.000000,1.867615,0.000000,0.220047,0.000000,4.710890
LINE149,25.066619,-0.843296,0.000000,3.348784,0.000000,1.494161
LINE150,0.000000,2.936873,0.000000,3.065144,48.283258,1.246002
LINE151,0.000000,2.720486,49.917972,3.329060,0.000000,1.601990
LINE152,391.914983,-0.832682,310.621890,3.323975,268.523094,1.247812
LINE153,0.000000,3.569105,0.000000,-0.239241,0.000000,3.375768
LINE154,24.884175,-0.844818,74.469627,3.328805,48.088538,1.244941
LINE155,0.000000,1.545864,0.000000,4.687457,0.000000,1.545864
LINE156,25.066619,-0.843296,0.000000,3.248781,0.000000,1.491977
LINE157,0.000000,2.988490,0.000000,3.061411,48.283258,1.246002
LINE158,0.000000,2.679935,49.917972,3.329060,0.000000,1.612017
LINE159,391.914983,-0.832682,310.621890,3.323975,268.523094,1.247812
LINE160,0.000000,-0.338532,0.000000,2.590142,0.000000,2.054894
LINE161,0.000000,2.606609,24.776886,3.328646,0.000000,4.600803
LINE162,24.884175,-0.844818,49.692741,3.328884,48.088538,1.244941
LINE163,0.000000,1.545864,0.000000,-0.024932,0.000000,1.538052
LINE164,25.066619,-0.843296,0.000000,3.279735,0.000000,1.513165
LINE165,0.000000,3.017561,0.000000,3.055513,48.283258,1.246002
LINE166,0.000000,2.714587,49.917972,3.329060,0.000000,1.612749
LINE167,391.914983,-0.832682,310.621890,3.323975,268.523094,1.247812
LINE168,0.000000,-0.377704,0.000000,2.743575,0.000000,-0.355122
LINE169,0.000000,2.230154,24.776886,3.328646,0.000000,4.643419
LINE170,24.884175,-0.844818,49.692741,3.328884,48.088538,1.244941
LINE171,0.000000,1.545864,0.000000,0.000000,0.000000,1.530241
LINE172,25.066619,-0.843296,0.000000,3.253349,0.000000,1.510497
LINE173,0.000000,4.022448,0.000000,2.905298,0.000000,2.737812
LINE174,0.000000,1.623956,0.000000,3.265493,48.283258,1.246002
LINE175,0.000000,2.764079,49.917972,3.329060,0.000000,1.604731
LINE176,391.914983,-0.832682,310.621890,3.323975,268.523094,1.247812
LINE177,0.000000,-0.403370,24.776886,3.328646,0.000000,-1.536245
LINE178,24.884175,-0.844818,49.692741,3.328884,0.000000,-1.485284
LINE179,0.000000,0.263260,0.000000,2.634732,48.088538,1.244941
LINE180,0.000000,2.871682,0.000000,-0.024932,0.000000,1.551073
LINE181,25.066619,-0.843296,0.000000,3.278288,0.000000,1.500673
LINE182,0.000000,-1.535505,0.000000,2.551428,0.000000,2.816565
LINE183,0.000000,1.631427,0.000000,3.286755,48.283258,1.246002
LINE184,0.000000,2.841697,49.917972,3.329060,0.000000,1.609848
LINE185,391.914983,-0.832682,310.621890,3.323975,268.523094,1.247812
LINE186,24.884175,-0.844818,49.692741,3.328884,0.000000,-1.389002
LINE187,0.000000,0.260172,0.000000,2.618234,48.088538,1.244941
LINE188,0.000000,3.580308,0.000000,-0.024932,0.000000,1.569298
LINE189,25.066619,-0.843296,0.000000,3.290249,0.000000,1.506566
LINE190,0.000000,3.316978,0.000000,-0.280624,0.000000,0.025088
LINE191,0.000000,4.365642,0.000000,3.566371,0.000000,2.566291
LINE192,0.000000,1.622664,0.000000,3.281703,48.283258,1.246002
LINE193,0.000000,2.859048,49.917972,3.329060,0.000000,1.604388
LINE194,391.914983,-0.832682,310.621890,3.323975,268.523094,1.247812
LINE195,24.884175,-0.844818,49.692741,3.328884,0.000000,-1.400353
LINE196,0.000000,2.325007,0.000000,1.369901,24.042460,1.244923
LINE197,0.000000,0.258526,0.000000,2.626462,24.046078,1.244960
LINE198,0.000000,3.116661,0.000000,-0.024932,0.000000,1.600497
LINE199,25.066619,-0.843296,0.000000,3.359556,0.000000,1.519609
LINE200,0.000000,-0.608904,0.000000,1.850767,0.000000,0.968161
LINE201,0.000000,-1.039692,0.000000,1.830327,0.000000,2.926585
LINE202,0.000000,1.833558,0.000000,3.278349,48.283258,1.246002
LINE203,0.000000,2.845741,49.917972,3.329060,0.000000,1.606521
LINE204,391.914983,-0.832682,310.621890,3.323975,268.523094,1.247812
LINE205,24.884175,-0.844818,0.000000,0.268306,0.000000,4.270184
LINE206,0.000000,0.667696,49.692741,3.328884,0.000000,-1.524635
LINE207,0.000000,3.228539,0.000000,2.865932,24.042460,1.244923
LINE208,0.000000,0.381521,0.000000,2.309468,24.046078,1.244960
LINE209,0.000000,2.133867,0.000000,4.687457,0.000000,0.000000
LINE210,25.066619,-0.843296,0.000000,3.364428,0.000000,1.525791
LINE211,0.000000,-0.996420,0.000000,0.585301,0.000000,2.482220
LINE212,0.000000,1.645857,0.000000,3.305158,48.283258,1.246002
LINE213,0.000000,2.835322,49.917972,3.329060,0.000000,1.626533
LINE214,391.914983,-0.832682,310.621890,3.323975,268.523094,1.247812
LINE215,24.884175,-0.844818,0.000000,0.894560,0.000000,1.543748
LINE216,0.000000,1.003827,49.692741,3.328884,0.000000,-1.516838
LINE217,0.000000,0.110164,0.000000,1.382548,24.046078,1.244960
LINE218,0.000000,0.000000,0.000000,0.000000,0.000000,3.116661
LINE219,25.066619,-0.843296,0.000000,3.362195,0.000000,1.529235
LINE220,0.000000,-1.193000,0.000000,0.580548,0.000000,2.230242
LINE221,0.000000,1.674545,0.000000,3.359746,48.283258,1.246002
LINE222,0.000000,2.801061,49.917972,3.329060,0.000000,1.615634
LINE223,391.914983,-0.832682,310.621890,3.323975,268.523094,1.247812
LINE224,24.884175,-0.844818,0.000000,2.426653,0.000000,1.558479
LINE225,0.000000,1.512036,49.692741,3.328884,0.000000,-1.524479
LINE226,0.000000,-0.194958,0.000000,2.723869,24.046078,1.244960
LINE227,25.066619,-0.843296,0.000000,3.281854,0.000000,1.549298
LINE228,0.000000,-0.955633,0.000000,0.454567,0.000000,1.819786
LINE229,0.000000,1.693277,0.000000,3.428278,48.283258,1.246002
LINE230,0.000000,2.789160,49.917972,3.329060,0.000000,1.594933
LINE231,391.914983,-0.832682,310.621890,3.323975,268.523094,1.247812
LINE232,0.000000,0.554504,49.692741,3.328884,0.000000,1.659958
LINE233,0.000000,-0.300052,0.000000,-0.300052,0.000000,-1.150162
LINE234,0.000000,0.014259,0.000000,3.846939,24.046078,1.244960
LINE235,25.066619,-0.843296,0.000000,3.512470,0.000000,1.528082
LINE236,0.000000,-0.630758,0.000000,0.232414,0.000000,1.681195
LINE237,0.000000,1.415742,0.000000,3.440448,48.283258,1.246002
LINE238,0.000000,2.813549,49.917972,3.329060,0.000000,1.576923
LINE239,391.914983,-0.832682,310.621890,3.323975,268.523094,1.247812
LINE240,0.000000,0.602498,49.692741,3.328884,0.000000,1.480606
LINE241,0.000000,-0.246637,0.000000,-0.393751,24.046078,1.244960
LINE242,25.066619,-0.843296,0.000000,3.054476,0.000000,1.558433
LINE243,0.000000,-0.616938,0.000000,2.279054,0.000000,1.495472
LINE244,0.000000,1.499543,0.000000,3.391440,48.283258,1.246002
LINE245,0.000000,2.879271,49.917972,3.329060,0.000000,1.588353
LINE246,391.914983,-0.832682,310.621890,3.323975,268.523094,1.247812
LINE247,0.000000,2.754608,24.846371,3.328884,0.000000,4.697694
LINE248,0.000000,2.755057,24.846371,3.328884,0.000000,-1.514644
LINE249,0.000000,0.331904,0.000000,0.331904,24.046078,1.244960
LINE250,25.066619,-0.843296,0.000000,2.951063,0.000000,1.606109
LINE251,0.000000,-1.144651,0.000000,2.140183,0.000000,1.313773
LINE252,0.000000,1.437966,0.000000,3.378037,48.283258,1.246002
LINE253,0.000000,2.897794,49.917972,3.329060,0.000000,1.597493
LINE254,25.472607,-0.841014,0.000000,3.311966,0.000000,-1.517853
LINE255,366.443322,-0.832103,310.621890,3.323975,268.523094,1.247812
LINE256,0.000000,4.586012,0.000000,4.239250,24.046078,1.244960
LINE257,25.066619,-0.843296,0.000000,3.604361,0.000000,1.528739
LINE258,0.000000,3.520907,0.000000,-0.371860,0.000000,3.671350
LINE259,0.000000,1.466407,0.000000,3.397090,48.283258,1.246002
LINE260,0.000000,2.831124,49.917972,3.329060,0.000000,1.576568
LINE261,25.472607,-0.841014,0.000000,3.312235,0.000000,-1.518418
LINE262,366.443322,-0.832103,310.621890,3.323975,268.523094,1.247812
LINE263,0.000000,0.642128,0.000000,2.583241,24.046078,1.244960
LINE264,25.066619,-0.843296,0.000000,2.235136,0.000000,0.850190
LINE265,0.000000,-0.843352,0.000000,2.909943,0.000000,4.404442
LINE266,0.000000,1.526502,0.000000,3.387309,48.283258,1.246002
LINE267,0.000000,-0.594202,24.962167,3.329091,0.000000,-1.280666
LINE268,0.000000,2.848091,24.955805,3.329028,0.000000,-0.248587
LINE269,25.472607,-0.841014,0.000000,3.279874,0.000000,-1.511821
LINE270,0.000000,3.899773,0.000000,3.551028,24.263655,1.247983
LINE271,366.443322,-0.832103,310.621890,3.323975,244.259439,1.247795
LINE272,25.066619,-0.843296,0.000000,-0.216305,0.000000,1.561046
LINE273,0.000000,3.230218,0.000000,2.378078,0.000000,3.374407
LINE274,0.000000,1.632036,0.000000,3.342619,48.283258,1.246002
LINE275,0.000000,2.108474,24.962167,3.329091,0.000000,-1.548208
LINE276,0.000000,2.948435,24.955805,3.329028,0.000000,-1.445654
LINE277,25.472607,-0.841014,0.000000,3.331848,0.000000,-1.510500
LINE278,0.000000,4.305092,0.000000,3.549170,24.263655,1.247983
LINE279,366.443322,-0.832103,310.621890,3.323975,244.259439,1.247795
LINE280,25.066619,-0.843296,0.000000,3.355280,0.000000,1.498958
LINE281,0.000000,0.227646,0.000000,-1.356361,0.000000,2.396839
LINE282,0.000000,2.028605,0.000000,3.440355,48.283258,1.246002
LINE283,0.000000,2.780151,24.955805,3.329028,0.000000,-1.519755
LINE284,25.472607,-0.841014,0.000000,3.266441,0.000000,-1.513180
LINE285,0.000000,-0.996155,0.000000,3.686169,24.263655,1.247983
LINE286,183.301456,-0.830944,103.277932,3.320625,48.450385,1.248808
LINE287,183.142112,-0.833263,207.344825,3.325643,195.809086,1.247544
LINE288,25.066619,-0.843296,0.000000,2.404043,0.000000,1.558790
LINE289,0.000000,3.358443,0.000000,2.434753,0.000000,1.436653
LINE290,0.000000,3.433550,0.000000,2.189321,24.146871,1.246056
LINE291,0.000000,1.373745,0.000000,3.730465,24.136388,1.245949
LINE292,0.000000,2.224691,24.955805,3.329028,0.000000,1.638158
LINE293,25.472607,-0.841014,0.000000,3.219383,0.000000,-1.514632
LINE294,0.000000,-0.704162,0.000000,3.584811,24.263655,1.247983
LINE295,183.301456,-0.830944,103.277932,3.320625,48.450385,1.248808
LINE296,183.142112,-0.833263,207.344825,3.325643,195.809086,1.247544
LINE297,0.000000,3.423149,0.000000,0.712307,24.146871,1.246056
LINE298,0.000000,0.542906,0.000000,3.451850,24.136388,1.245949
LINE299,0.000000,0.479609,24.955805,3.329028,0.000000,1.753324
LINE300,25.472607,-0.841014,0.000000,3.256301,0.000000,-1.514935
LINE301,0.000000,-0.802362,0.000000,3.342528,24.263655,1.247983
LINE302,183.301456,-0.830944,103.277932,3.320625,48.450385,1.248808
LINE303,183.142112,-0.833263,207.344825,3.325643,195.809086,1.247544
LINE304,0.000000,3.233113,0.000000,0.083935,24.146871,1.246056
LINE305,0.000000,1.258304,0.000000,3.058754,24.136388,1.245949
LINE306,0.000000,1.468030,24.955805,3.329028,0.000000,1.645682
LINE307,25.472607,-0.841014,0.000000,3.415346,0.000000,-1.511504
LINE308,0.000000,-0.264443,0.000000,2.995458,24.263655,1.247983
LINE309,183.301456,-0.830944,103.277932,3.320625,48.450385,1.248808
LINE310,183.142112,-0.833263,207.344825,3.325643,195.809086,1.247544
LINE311,0.000000,2.615840,0.000000,0.254373,24.146871,1.246056
LINE312,0.000000,0.683076,0.000000,2.399390,24.136388,1.245949
LINE313,0.000000,1.497683,24.955805,3.329028,0.000000,4.671983
LINE314,25.472607,-0.841014,0.000000,3.466699,0.000000,-1.516477
LINE315,0.000000,2.769640,0.000000,-0.448967,24.263655,1.247983
LINE316,51.460604,-0.838523,0.000000,3.849706,0.000000,0.849222
LINE317,131.842906,-0.827986,103.277932,3.320625,48.450385,1.248808
LINE318,183.142112,-0.833263,207.344825,3.325643,195.809086,1.247544
LINE319,0.000000,0.492810,0.000000,-0.017375,24.146871,1.246056
LINE320,0.000000,3.438973,0.000000,0.205188,24.136388,1.245949
LINE321,25.472607,-0.841014,0.000000,3.448556,0.000000,-1.522777
LINE322,0.000000,2.445435,0.000000,0.407404,24.263655,1.247983
LINE323,51.460604,-0.838523,0.000000,3.765267,0.000000,0.951082
LINE324,131.842906,-0.827986,103.277932,3.320625,48.450385,1.248808
LINE325,183.142112,-0.833263,207.344825,3.325643,195.809086,1.247544
LINE326,0.000000,2.679795,0.000000,4.486014,24.136388,1.245949
LINE327,25.472607,-0.841014,0.000000,3.521817,0.000000,-1.514235
LINE328,0.000000,1.964802,0.000000,3.072526,24.263655,1.247983
LINE329,51.460604,-0.838523,0.000000,3.530999,0.000000,0.729946
LINE330,0.000000,-1.521297,0.000000,3.318779,24.263997,1.248960
LINE331,131.842906,-0.827986,103.277932,3.320625,24.186388,1.248656
LINE332,183.142112,-0.833263,207.344825,3.325643,195.809086,1.247544
LINE333,25.472607,-0.841014,0.000000,3.409387,0.000000,-1.512243
LINE334,0.000000,-0.200682,0.000000,0.441887,24.263655,1.247983
LINE335,51.460604,-0.838523,0.000000,3.578992,0.000000,0.750718
LINE336,0.000000,0.073943,0.000000,2.548501,24.263997,1.248960
LINE337,0.000000,-1.043817,25.442952,3.323272,0.000000,1.615611
LINE338,131.842906,-0.827986,77.835099,3.319760,24.186388,1.248656
LINE339,183.142112,-0.833263,207.344825,3.325643,195.809086,1.247544
LINE340,25.472607,-0.841014,0.000000,3.411679,0.000000,-1.510745
LINE341,0.000000,3.484818,0.000000,-0.025337,24.263655,1.247983
LINE342,25.724734,-0.838576,0.000000,3.278815,0.000000,1.515873
LINE343,25.735871,-0.838470,0.000000,3.741835,0.000000,0.917436
LINE344,0.000000,-1.044075,25.442952,3.323272,0.000000,1.614762
LINE345,131.842906,-0.827986,77.835099,3.319760,24.186388,1.248656
LINE346,183.142112,-0.833263,207.344825,3.325643,195.809086,1.247544
LINE347,25.472607,-0.841014,0.000000,3.380791,0.000000,-1.523095
LINE348,25.724734,-0.838576,0.000000,3.555242,0.000000,4.666158
LINE349,25.735871,-0.838470,0.000000,3.611945,0.000000,-0.355711
LINE350,0.000000,-1.222883,25.442952,3.323272,0.000000,1.609704
LINE351,131.842906,-0.827986,77.835099,3.319760,24.186388,1.248656
LINE352,183.142112,-0.833263,207.344825,3.325643,195.809086,1.247544
LINE353,25.472607,-0.841014,0.000000,3.489642,0.000000,-1.501252
LINE354,25.735871,-0.838470,0.000000,3.205684,0.000000,-0.296956
LINE355,0.000000,-1.135272,25.442952,3.323272,0.000000,1.622897
LINE356,131.842906,-0.827986,77.835099,3.319760,24.186388,1.248656
LINE357,183.142112,-0.833263,207.344825,3.325643,195.809086,1.247544
LINE358,25.472607,-0.841014,0.000000,3.341715,0.000000,-1.542102
LINE359,25.735871,-0.838470,0.000000,3.473738,0.000000,-1.424619
LINE360,0.000000,-1.003390,25.442952,3.323272,0.000000,1.613641
LINE361,131.842906,-0.827986,77.835099,3.319760,24.186388,1.248656
LINE362,183.142112,-0.833263,207.344825,3.325643,195.809086,1.247544
LINE363,25.472607,-0.841014,0.000000,3.054538,0.000000,4.580975
LINE364,25.735871,-0.838470,0.000000,-0.635094,0.000000,0.788339
LINE365,0.000000,-1.400589,25.442952,3.323272,0.000000,1.653048
LINE366,131.842906,-0.827986,77.835099,3.319760,24.186388,1.248656
LINE367,183.142112,-0.833263,207.344825,3.325643,195.809086,1.247544
LINE368,25.472607,-0.841014,0.000000,3.820916,0.000000,1.795489
LINE369,25.735871,-0.838470,0.000000,0.136404,0.000000,1.507103
LINE370,0.000000,-0.510162,25.442952,3.323272,0.000000,1.549136
LINE371,131.842906,-0.827986,77.835099,3.319760,24.186388,1.248656
LINE372,183.142112,-0.833263,207.344825,3.325643,195.809086,1.247544
LINE373,25.472607,-0.841014,0.000000,2.365139,0.000000,4.707929
LINE374,25.735871,-0.838470,0.000000,0.842328,0.000000,1.447215
LINE375,0.000000,-1.117882,25.442952,3.323272,0.000000,3.337328
LINE376,131.842906,-0.827986,77.835099,3.319760,24.186388,1.248656
LINE377,183.142112,-0.833263,207.344825,3.325643,171.460074,1.247435
LINE378,0.000000,-1.119737,0.000000,3.692665,24.349020,1.248311
LINE379,25.472607,-0.841014,0.000000,0.290750,0.000000,-1.532237
LINE380,25.735871,-0.838470,0.000000,0.025566,0.000000,4.661212
LINE381,0.000000,-0.868106,25.442952,3.323272,0.000000,4.500910
LINE382,131.842906,-0.827986,77.835099,3.319760,24.186388,1.248656
LINE383,183.142112,-0.833263,207.344825,3.325643,171.460074,1.247435
LINE384,0.000000,-1.285864,0.000000,4.117250,24.349020,1.248311
LINE385,0.000000,0.530444,0.000000,1.501987,0.000000,1.565969
LINE386,25.472607,-0.841014,0.000000,3.525682,0.000000,1.554706
LINE387,25.735871,-0.838470,0.000000,-0.290959,0.000000,4.371790
LINE388,0.000000,-1.354813,25.442952,3.323272,0.000000,-1.320097
LINE389,131.842906,-0.827986,77.835099,3.319760,24.186388,1.248656
LINE390,183.142112,-0.833263,207.344825,3.325643,171.460074,1.247435
LINE391,0.000000,-1.334599,0.000000,4.128292,24.349020,1.248311
LINE392,0.000000,0.261716,0.000000,1.532505,0.000000,1.561423
LINE393,0.000000,4.280713,25.442952,3.323272,0.000000,4.661152
LINE394,131.842906,-0.827986,77.835099,3.319760,24.186388,1.248656
LINE395,0.000000,3.090145,0.000000,0.488996,48.812475,1.248441
LINE396,183.142112,-0.833263,207.344825,3.325643,122.647633,1.247034
LINE397,0.000000,-1.238638,0.000000,4.412447,24.349020,1.248311
LINE398,0.000000,0.603327,0.000000,1.837731,0.000000,1.577394
LINE399,0.000000,2.901930,25.442952,3.323272,0.000000,-1.505217
LINE400,131.842906,-0.827986,77.835099,3.319760,24.186388,1.248656
LINE401,0.000000,3.030831,0.000000,0.464469,48.812475,1.248441
LINE402,183.142112,-0.833263,207.344825,3.325643,122.647633,1.247034
LINE403,0.000000,-1.499119,0.000000,-0.795408,24.349020,1.248311
LINE404,0.000000,-0.567211,0.000000,2.657021,0.000000,1.562005
LINE405,0.000000,4.230562,25.442952,3.323272,0.000000,-0.499444
LINE406,131.842906,-0.827986,77.835099,3.319760,24.186388,1.248656
LINE407,0.000000,2.911006,0.000000,0.347088,48.812475,1.248441
LINE408,183.142112,-0.833263,207.344825,3.325643,122.647633,1.247034
LINE409,0.000000,-0.702101,0.000000,3.524583,0.000000,1.017825
LINE410,0.000000,3.583468,0.000000,-1.392838,24.349020,1.248311
LINE411,0.000000,4.658687,0.000000,3.101254,0.000000,1.511408
LINE412,131.842906,-0.827986,77.835099,3.319760,24.186388,1.248656
LINE413,0.000000,2.918203,0.000000,0.337960,48.812475,1.248441
LINE414,183.142112,-0.833263,207.344825,3.325643,122.647633,1.247034
LINE415,0.000000,-0.677658,0.000000,3.509551,0.000000,1.124690
LINE416,0.000000,3.222506,0.000000,-1.264558,24.349020,1.248311
LINE417,0.000000,4.635743,0.000000,1.495004,0.000000,1.539927
LINE418,131.842906,-0.827986,77.835099,3.319760,24.186388,1.248656
LINE419,0.000000,2.990165,0.000000,0.493933,48.812475,1.248441
LINE420,183.142112,-0.833263,207.344825,3.325643,122.647633,1.247034
LINE421,0.000000,-0.799285,0.000000,3.459290,0.000000,0.915764
LINE422,0.000000,3.049916,0.000000,-0.447376,24.349020,1.248311
LINE423,0.000000,-0.987924,0.000000,-0.025523,0.000000,1.505552
LINE424,131.842906,-0.827986,77.835099,3.319760,24.186388,1.248656
LINE425,0.000000,4.583693,0.000000,2.940424,0.000000,4.118696
LINE426,0.000000,2.999129,0.000000,0.465416,48.812475,1.248441
LINE427,183.142112,-0.833263,207.344825,3.325643,122.647633,1.247034
LINE428,0.000000,-0.786939,0.000000,3.610843,0.000000,1.305641
LINE429,0.000000,2.601962,0.000000,-0.152137,24.349020,1.248311
LINE430,0.000000,-1.048004,0.000000,0.193153,0.000000,1.500607
LINE431,131.842906,-0.827986,77.835099,3.319760,24.186388,1.248656
LINE432,0.000000,-0.201681,0.000000,-0.201681,0.000000,2.996186
LINE433,0.000000,2.971996,0.000000,0.452022,48.812475,1.248441
LINE434,183.142112,-0.833263,207.344825,3.325643,122.647633,1.247034
LINE435,0.000000,-0.667071,0.000000,3.592155,0.000000,1.201107
LINE436,0.000000,2.155667,0.000000,-0.749537,24.349020,1.248311
LINE437,0.000000,-0.886492,0.000000,3.565973,0.000000,1.515364
LINE438,131.842906,-0.827986,77.835099,3.319760,24.186388,1.248656
LINE439,0.000000,0.790476,0.000000,-0.443709,0.000000,-0.454796
LINE440,0.000000,2.983951,0.000000,0.404710,48.812475,1.248441
LINE441,183.142112,-0.833263,207.344825,3.325643,122.647633,1.247034
LINE442,0.000000,-0.622315,0.000000,3.683357,0.000000,1.337141
LINE443,0.000000,2.777890,0.000000,0.705738,24.349020,1.248311
LINE444,0.000000,-0.691037,0.000000,4.608753,0.000000,1.533447
LINE445,131.842906,-0.827986,77.835099,3.319760,24.186388,1.248656
LINE446,0.000000,-0.873546,0.000000,3.458424,0.000000,1.584409
LINE447,0.000000,2.999056,0.000000,0.430936,48.812475,1.248441
LINE448,183.142112,-0.833263,207.344825,3.325643,122.647633,1.247034
LINE449,0.000000,-0.724301,0.000000,3.764350,0.000000,1.258161
LINE450,0.000000,3.257009,0.000000,2.317964,24.349020,1.248311
LINE451,0.000000,-0.103685,0.000000,4.176466,0.000000,1.532714
LINE452,131.842906,-0.827986,77.835099,3.319760,24.186388,1.248656
LINE453,0.000000,2.939912,0.000000,2.939912,0.000000,-0.145406
LINE454,0.000000,3.080540,0.000000,0.406784,48.812475,1.248441
LINE455,183.142112,-0.833263,207.344825,3.325643,122.647633,1.247034
LINE456,0.000000,-0.705827,0.000000,3.872927,0.000000,1.420730
LINE457,0.000000,2.628876,0.000000,3.084084,24.349020,1.248311
LINE458,0.000000,-0.188175,0.000000,-0.928394,0.000000,1.546057
LINE459,105.602754,-0.827411,77.835099,3.319760,24.186388,1.248656
LINE460,0.000000,3.984716,0.000000,0.111571,0.000000,4.458046
LINE461,26.240240,-0.830300,0.000000,0.058152,0.000000,4.692897
LINE462,0.000000,3.007409,0.000000,0.470263,48.812475,1.248441
LINE463,183.142112,-0.833263,207.344825,3.325643,122.647633,1.247034
LINE464,0.000000,-0.772082,0.000000,4.015209,0.000000,1.198559
LINE465,0.000000,-0.583197,0.000000,-0.895407,0.000000,1.542717
LINE466,105.602754,-0.827411,77.835099,3.319760,24.186388,1.248656
LINE467,0.000000,0.996717,0.000000,-0.953540,0.000000,3.968953
LINE468,0.000000,3.373917,0.000000,0.992357,0.000000,4.540449
LINE469,26.240240,-0.830300,0.000000,0.036781,0.000000,4.689292
LINE470,0.000000,2.973181,0.000000,0.456811,48.812475,1.248441
LINE471,183.142112,-0.833263,207.344825,3.325643,122.647633,1.247034
LINE472,0.000000,-0.728796,0.000000,3.951589,0.000000,-0.356254
LINE473,0.000000,-1.287005,0.000000,-0.965246,0.000000,1.536718
LINE474,105.602754,-0.827411,77.835099,3.319760,24.186388,1.248656
LINE475,0.000000,1.685032,0.000000,4.274601,0.000000,-0.145406
LINE476,26.240240,-0.830300,0.000000,-0.022215,0.000000,4.701839
LINE477,0.000000,2.965279,0.000000,0.444072,48.812475,1.248441
LINE478,183.142112,-0.833263,207.344825,3.325643,122.647633,1.247034
LINE479,0.000000,-0.790572,0.000000,3.962355,0.000000,-0.018737
LINE480,0.000000,4.671756,0.000000,4.636507,0.000000,1.549189
LINE481,52.843841,-0.826674,77.835099,3.319760,24.186388,1.248656
LINE482,0.000000,4.588281,0.000000,4.588281,0.000000,1.356360
LINE483,52.758942,-0.828149,0.000000,1.640965,0.000000,1.265657
LINE484,26.240240,-0.830300,0.000000,0.019541,0.000000,-1.557107
LINE485,0.000000,2.937815,0.000000,0.536532,48.812475,1.248441
LINE486,183.142112,-0.833263,207.344825,3.325643,122.647633,1.247034
LINE487,0.000000,-0.632831,0.000000,3.805490,0.000000,4.477544
LINE488,0.000000,-0.545140,0.000000,3.854733,0.000000,1.556452
LINE489,52.843841,-0.826674,77.835099,3.319760,24.186388,1.248656
LINE490,0.000000,2.939912,0.000000,2.939912,0.000000,-0.145406
LINE491,26.377432,-0.828168,0.000000,1.650979,0.000000,1.184156
LINE492,26.381510,-0.828130,0.000000,-1.201158,0.000000,1.473147
LINE493,26.240240,-0.830300,0.000000,0.174103,0.000000,-1.540095
LINE494,0.000000,2.815886,0.000000,0.431640,48.812475,1.248441
LINE495,183.142112,-0.833263,207.344825,3.325643,122.647633,1.247034
LINE496,0.000000,-0.761083,0.000000,3.985795,0.000000,4.669384
LINE497,0.000000,-0.096462,0.000000,1.523427,0.000000,1.611710
LINE498,52.843841,-0.826674,77.835099,3.319760,24.186388,1.248656
LINE499,0.000000,3.446547,0.000000,1.720823,0.000000,-1.299161
LINE500,26.377432,-0.828168,0.000000,1.816360,0.000000,-1.568165
LINE501,26.381510,-0.828130,0.000000,3.899374,0.000000,-1.544726
LINE502,26.240240,-0.830300,0.000000,0.116533,0.000000,-1.532424
LINE503,0.000000,2.342410,0.000000,0.311555,48.812475,1.248441
LINE504,183.142112,-0.833263,207.344825,3.325643,122.647633,1.247034
LINE505,0.000000,-0.651957,0.000000,4.004720,0.000000,4.536024
LINE506,0.000000,0.000000,0.000000,0.000000,0.000000,0.000000
LINE507,52.843841,-0.826674,77.835099,3.319760,24.186388,1.248656
LINE508,0.000000,-1.207225,0.000000,1.290023,0.000000,1.998394
LINE509,26.377432,-0.828168,0.000000,1.615976,0.000000,1.542951
LINE510,26.240240,-0.830300,0.000000,0.088375,0.000000,-1.541545
LINE511,0.000000,2.668072,0.000000,0.268742,48.812475,1.248441
LINE512,0.000000,1.487020,25.575093,3.325631,0.000000,1.512725
LINE513,183.142112,-0.833263,181.769732,3.325645,122.647633,1.247034
LINE514,0.000000,-0.744922,0.000000,4.098838,0.000000,-1.555566
LINE515,0.000000,1.296853,77.835099,3.319760,24.186388,1.248656
LINE516,0.000000,2.939912,0.000000,2.939912,0.000000,-0.145406
LINE517,52.843841,-0.826674,0.000000,4.621932,0.000000,1.927611
LINE518,26.377432,-0.828168,0.000000,1.661798,0.000000,4.479711
LINE519,26.240240,-0.830300,0.000000,0.223460,0.000000,-1.527391
LINE520,0.000000,2.894335,0.000000,0.115437,48.812475,1.248441
LINE521,0.000000,0.832988,25.575093,3.325631,0.000000,1.540689
LINE522,183.142112,-0.833263,181.769732,3.325645,122.647633,1.247034
LINE523,0.000000,-0.820232,0.000000,4.229020,0.000000,4.408505
LINE524,0.000000,1.311046,77.835099,3.319760,24.186388,1.248656
LINE525,0.000000,4.113046,0.000000,0.407381,0.000000,4.347590
LINE526,52.843841,-0.826674,0.000000,4.538850,0.000000,1.927048
LINE527,26.377432,-0.828168,0.000000,1.277085,0.000000,1.640633
LINE528,26.240240,-0.830300,0.000000,0.161207,0.000000,-1.510942
LINE529,0.000000,2.009647,0.000000,0.709976,48.812475,1.248441
LINE530,183.142112,-0.833263,181.769732,3.325645,122.647633,1.247034
LINE531,0.000000,-0.255847,0.000000,3.586984,0.000000,-1.481588
LINE532,0.000000,1.279820,77.835099,3.319760,24.186388,1.248656
LINE533,0.000000,2.888080,0.000000,2.888080,0.000000,1.615058
LINE534,52.843841,-0.826674,0.000000,4.621600,0.000000,1.944068
LINE535,26.377432,-0.828168,0.000000,2.036927,0.000000,1.647257
LINE536,26.240240,-0.830300,0.000000,0.283940,0.000000,-1.491424
LINE537,0.000000,2.202397,0.000000,2.621046,24.412262,1.248502
LINE538,0.000000,1.597763,0.000000,-0.257034,24.400213,1.248380
LINE539,183.142112,-0.833263,181.769732,3.325645,122.647633,1.247034
LINE540,0.000000,-0.419194,0.000000,3.104619,0.000000,-0.219307
LINE541,0.000000,1.207136,77.835099,3.319760,24.186388,1.248656
LINE542,0.000000,3.589730,0.000000,3.589730,0.000000,0.823694
LINE543,52.843841,-0.826674,0.000000,4.372501,0.000000,1.913930
LINE544,26.377432,-0.828168,0.000000,-0.270335,0.000000,4.675368
LINE545,26.240240,-0.830300,0.000000,0.286256,0.000000,-1.484586
LINE546,0.000000,3.302885,0.000000,3.308463,24.412262,1.248502
LINE547,183.142112,-0.833263,181.769732,3.325645,122.647633,1.247034
LINE548,0.000000,0.193242,0.000000,3.347783,0.000000,0.561314
LINE549,0.000000,1.209312,77.835099,3.319760,24.186388,1.248656
LINE550,0.000000,2.939912,0.000000,2.939912,0.000000,-0.145406
LINE551,26.421416,-0.826678,0.000000,4.420585,0.000000,1.808293
LINE552,26.422425,-0.826669,0.000000,1.734429,0.000000,-1.507414
LINE553,26.377432,-0.828168,0.000000,-0.228880,0.000000,-1.511942
LINE554,26.240240,-0.830300,0.000000,0.439593,0.000000,-1.479059
LINE555,0.000000,3.868130,0.000000,1.588226,24.412262,1.248502
LINE556,183.142112,-0.833263,181.769732,3.325645,122.647633,1.247034
LINE557,0.000000,1.693706,0.000000,2.286353,0.000000,0.026118
LINE558,0.000000,1.212282,77.835099,3.319760,24.186388,1.248656
LINE559,0.000000,1.606083,0.000000,2.107007,0.000000,-0.929663
LINE560,26.421416,-0.826678,0.000000,4.700525,0.000000,1.699763
LINE561,26.422425,-0.826669,0.000000,-0.337361,0.000000,4.666093
LINE562,26.377432,-0.828168,0.000000,3.918148,0.000000,4.642411
LINE563,26.240240,-0.830300,0.000000,0.336551,0.000000,-1.510609
LINE564,183.142112,-0.833263,181.769732,3.325645,122.647633,1.247034
LINE565,0.000000,0.000000,0.000000,0.000000,0.000000,0.000000
LINE566,0.000000,0.799966,25.934128,3.319815,24.186388,1.248656
LINE567,0.000000,2.603142,0.000000,-0.271974,0.000000,3.587096
LINE568,0.000000,1.993289,51.900971,3.319732,0.000000,1.742313
LINE569,26.421416,-0.826678,0.000000,-1.364617,0.000000,2.047100
LINE570,26.240240,-0.830300,0.000000,0.636811,0.000000,-1.494895
LINE571,183.142112,-0.833263,181.769732,3.325645,122.647633,1.247034
LINE572,0.000000,1.337610,25.934128,3.319815,24.186388,1.248656
LINE573,0.000000,0.442381,0.000000,3.419558,0.000000,1.835481
LINE574,0.000000,2.042048,51.900971,3.319732,0.000000,1.724153
LINE575,26.421416,-0.826678,0.000000,3.140217,0.000000,1.856646
LINE576,26.240240,-0.830300,0.000000,0.350996,0.000000,-1.486453
LINE577,183.142112,-0.833263,181.769732,3.325645,122.647633,1.247034
LINE578,0.000000,2.498400,25.934128,3.319815,24.186388,1.248656
LINE579,0.000000,-0.201681,0.000000,-0.201681,0.000000,2.996186
LINE580,0.000000,1.091029,0.000000,3.257838,0.000000,1.466600
LINE581,0.000000,2.028603,51.900971,3.319732,0.000000,1.711218
LINE582,26.421416,-0.826678,0.000000,3.436857,0.000000,1.685964
LINE583,26.240240,-0.830300,0.000000,0.585802,0.000000,-0.597049
LINE584,0.000000,-0.314354,25.612522,3.325722,0.000000,1.630918
LINE585,183.142112,-0.833263,156.157211,3.325633,122.647633,1.247034
LINE586,0.000000,2.619137,25.934128,3.319815,24.186388,1.248656
LINE587,0.000000,4.066863,0.000000,3.385578,0.000000,1.617314
LINE588,0.000000,0.697987,0.000000,3.278302,0.000000,1.517902
LINE589,0.000000,2.203344,51.900971,3.319732,0.000000,1.719620
LINE590,26.421416,-0.826678,0.000000,0.006270,0.000000,1.651209
LINE591,26.240240,-0.830300,0.000000,0.946146,0.000000,-1.163449
LINE592,0.000000,-0.305863,25.612522,3.325722,0.000000,1.634642
LINE593,183.142112,-0.833263,156.157211,3.325633,122.647633,1.247034
LINE594,0.000000,4.003066,25.934128,3.319815,0.000000,1.236476
LINE595,0.000000,1.972468,0.000000,0.005974,24.186388,1.248656
LINE596,0.000000,0.211074,0.000000,3.320880,0.000000,1.367704
LINE597,0.000000,2.190613,51.900971,3.319732,0.000000,1.697353
LINE598,26.421416,-0.826678,0.000000,3.427889,0.000000,1.500612
LINE599,26.240240,-0.830300,0.000000,1.551497,0.000000,1.210476
LINE600,0.000000,-0.291433,25.612522,3.325722,0.000000,1.628082
LINE601,0.000000,-1.510015,0.000000,-0.359643,24.440230,1.247261
LINE602,183.142112,-0.833263,156.157211,3.325633,98.207404,1.246978
LINE603,0.000000,2.619380,25.934128,3.319815,0.000000,4.693139
LINE604,0.000000,-0.246022,0.000000,-0.246022,0.000000,4.557243
LINE605,0.000000,1.462128,0.000000,1.498546,0.000000,4.605759
LINE606,0.000000,4.477615,0.000000,1.658685,24.186388,1.248656
LINE607,0.000000,-0.149575,0.000000,-0.149575,0.000000,3.066247
LINE608,0.000000,0.574834,0.000000,3.254442,0.000000,1.326485
LINE609,0.000000,2.202203,51.900971,3.319732,0.000000,1.693717
LINE610,26.421416,-0.826678,0.000000,2.894195,0.000000,1.548734
LINE611,26.240240,-0.830300,0.000000,1.329280,0.000000,1.493270
LINE612,0.000000,-0.299131,25.612522,3.325722,0.000000,1.631269
LINE613,0.000000,2.646615,0.000000,4.069485,24.440230,1.247261
LINE614,183.142112,-0.833263,156.157211,3.325633,98.207404,1.246978
LINE615,0.000000,3.537722,25.934128,3.319815,0.000000,-1.432296
LINE616,0.000000,3.677021,0.000000,-0.453873,0.000000,1.622820
LINE617,0.000000,2.311374,0.000000,-0.359210,0.000000,1.796095
LINE618,0.000000,3.849402,0.000000,0.016499,24.186388,1.248656
LINE619,0.000000,0.894216,0.000000,3.623613,0.000000,0.469499
LINE620,0.000000,2.221175,51.900971,3.319732,0.000000,1.690189
LINE621,26.240240,-0.830300,0.000000,0.530673,0.000000,4.644931
LINE622,0.000000,-0.396794,25.612522,3.325722,0.000000,1.639142
LINE623,0.000000,2.275382,25.685506,3.325014,0.000000,4.520418
LINE624,183.142112,-0.833263,130.471711,3.325754,98.207404,1.246978
LINE625,0.000000,-1.174667,25.934128,3.319815,0.000000,-1.376254
LINE626,0.000000,0.461745,0.000000,4.008786,0.000000,-0.935700
LINE627,0.000000,2.198121,51.900971,3.319732,0.000000,1.700270
LINE628,26.240240,-0.830300,0.000000,0.127547,0.000000,4.682367
LINE629,0.000000,-0.431307,25.612522,3.325722,0.000000,1.653307
LINE630,0.000000,2.065035,25.685506,3.325014,0.000000,4.320472
LINE631,183.142112,-0.833263,130.471711,3.325754,98.207404,1.246978
LINE632,0.000000,4.644870,25.934128,3.319815,0.000000,1.433081
LINE633,0.000000,1.008567,0.000000,4.553120,0.000000,-1.508731
LINE634,0.000000,2.231565,51.900971,3.319732,0.000000,1.713252
LINE635,0.000000,-0.511755,25.612522,3.325722,0.000000,1.639564
LINE636,0.000000,1.454906,25.685506,3.325014,0.000000,2.353991
LINE637,183.142112,-0.833263,130.471711,3.325754,98.207404,1.246978
LINE638,0.000000,0.000000,25.934128,3.319815,0.000000,-0.067519
LINE639,0.000000,1.613856,0.000000,-0.859691,0.000000,2.863325
LINE640,0.000000,2.211626,51.900971,3.319732,0.000000,1.716898
LINE641,0.000000,-0.501210,25.612522,3.325722,0.000000,1.636849
LINE642,0.000000,0.426912,25.685506,3.325014,0.000000,2.098125
LINE643,183.142112,-0.833263,130.471711,3.325754,98.207404,1.246978
LINE644,0.000000,1.018622,0.000000,-1.177196,0.000000,2.018760
LINE645,0.000000,2.280619,51.900971,3.319732,0.000000,1.718066
LINE646,0.000000,-0.520782,25.612522,3.325722,0.000000,1.645129
LINE647,0.000000,1.316797,25.685506,3.325014,0.000000,2.109671
LINE648,183.142112,-0.833263,130.471711,3.325754,98.207404,1.246978
LINE649,0.000000,1.893294,0.000000,0.350258,0.000000,4.423668
LINE650,0.000000,2.127969,51.900971,3.319732,0.000000,1.832208
LINE651,0.000000,-0.435163,25.612522,3.325722,0.000000,1.656893
LINE652,0.000000,1.179538,25.685506,3.325014,0.000000,1.820754
LINE653,183.142112,-0.833263,130.471711,3.325754,98.207404,1.246978
LINE654,0.000000,2.271935,0.000000,0.209181,0.000000,4.585342
LINE655,0.000000,2.310768,25.951650,3.319743,0.000000,1.588971
LINE656,0.000000,-0.079340,25.949321,3.319721,0.000000,1.456614
LINE657,0.000000,-0.471292,25.612522,3.325722,0.000000,1.652742
LINE658,0.000000,2.298621,25.685506,3.325014,0.000000,1.787579
LINE659,183.142112,-0.833263,130.471711,3.325754,98.207404,1.246978
LINE660,0.000000,2.010500,0.000000,0.106342,0.000000,4.642099
LINE661,0.000000,1.414038,25.951650,3.319743,0.000000,1.556118
LINE662,0.000000,0.463015,25.949321,3.319721,0.000000,1.571247
LINE663,0.000000,-0.391420,25.612522,3.325722,0.000000,1.658337
LINE664,0.000000,0.522389,25.685506,3.325014,0.000000,4.262312
LINE665,183.142112,-0.833263,130.471711,3.325754,98.207404,1.246978
LINE666,0.000000,1.997387,0.000000,-0.222270,0.000000,4.541967
LINE667,0.000000,0.601402,25.951650,3.319743,0.000000,-1.556240
LINE668,0.000000,0.386160,25.949321,3.319721,0.000000,1.569340
LINE669,0.000000,-0.348669,25.612522,3.325722,0.000000,1.659575
LINE670,0.000000,2.799023,25.685506,3.325014,0.000000,4.654832
LINE671,78.304793,-0.835102,0.000000,0.218985,0.000000,-1.448469
LINE672,104.837551,-0.831890,130.471711,3.325754,98.207404,1.246978
LINE673,0.000000,2.164396,0.000000,-0.498571,0.000000,0.576699
LINE674,0.000000,-0.291270,25.951650,3.319743,0.000000,1.538735
LINE675,0.000000,0.629750,25.949321,3.319721,0.000000,1.573561
LINE676,0.000000,-0.422960,25.612522,3.325722,0.000000,1.655753
LINE677,0.000000,2.924123,25.685506,3.325014,0.000000,1.550137
LINE678,78.304793,-0.835102,0.000000,0.169454,0.000000,-1.502165
LINE679,104.837551,-0.831890,130.471711,3.325754,98.207404,1.246978
LINE680,0.000000,-0.724099,0.000000,-0.724099,0.000000,4.391194
LINE681,0.000000,1.179346,25.951650,3.319743,0.000000,1.539205
LINE682,0.000000,-0.478057,25.612522,3.325722,0.000000,1.688110
LINE683,0.000000,-0.697439,25.685506,3.325014,0.000000,2.215787
LINE684,78.304793,-0.835102,0.000000,-0.396717,0.000000,1.591609
LINE685,104.837551,-0.831890,130.471711,3.325754,98.207404,1.246978
LINE686,0.000000,-0.368398,25.612522,3.325722,0.000000,1.671105
LINE687,0.000000,3.041812,25.685506,3.325014,0.000000,0.969775
LINE688,78.304793,-0.835102,0.000000,-0.013227,0.000000,4.451424
LINE689,0.000000,-0.023599,0.000000,-0.682073,49.014103,1.247517
LINE690,104.837551,-0.831890,130.471711,3.325754,49.193315,1.246441
LINE691,0.000000,-0.447240,25.612522,3.325722,0.000000,1.688934
LINE692,78.304793,-0.835102,0.000000,0.396766,0.000000,1.605021
LINE693,0.000000,0.021066,0.000000,-0.598393,24.508354,1.247530
LINE694,0.000000,-1.030230,0.000000,3.898402,24.505749,1.247504
LINE695,0.000000,-0.549535,25.811297,3.324820,0.000000,1.467535
LINE696,104.837551,-0.831890,104.660428,3.325985,49.193315,1.246441
LINE697,0.000000,-0.389951,25.612522,3.325722,0.000000,1.674872
LINE698,78.304793,-0.835102,0.000000,-0.003190,0.000000,1.633928
LINE699,0.000000,-0.029955,0.000000,-0.524697,24.508354,1.247530
LINE700,0.000000,1.100418,0.000000,-0.023264,24.505749,1.247504
LINE701,0.000000,2.539050,25.811297,3.324820,0.000000,1.598891
LINE702,104.837551,-0.831890,104.660428,3.325985,49.193315,1.246441
LINE703,0.000000,-0.390753,25.612522,3.325722,0.000000,1.680043
LINE704,78.304793,-0.835102,0.000000,0.218307,0.000000,1.678657
LINE705,0.000000,-0.181150,0.000000,-0.784134,24.508354,1.247530
LINE706,104.837551,-0.831890,104.660428,3.325985,49.193315,1.246441
LINE707,0.000000,2.379596,0.000000,2.108461,0.000000,2.724713
LINE708,0.000000,-0.417557,25.612522,3.325722,0.000000,1.684238
LINE709,78.304793,-0.835102,0.000000,0.167023,0.000000,2.009723
LINE710,0.000000,-0.136107,0.000000,-0.971661,24.508354,1.247530
LINE711,52.544549,-0.830191,104.660428,3.325985,49.193315,1.246441
LINE712,52.293153,-0.833596,0.000000,0.160290,0.000000,-1.440870
LINE713,0.000000,2.830610,0.000000,1.857202,0.000000,2.392202
LINE714,0.000000,-0.383723,25.612522,3.325722,0.000000,1.675983
LINE715,78.304793,-0.835102,0.000000,0.150710,0.000000,2.068659
LINE716,0.000000,1.050571,0.000000,-0.509067,24.508354,1.247530
LINE717,52.544549,-0.830191,104.660428,3.325985,49.193315,1.246441
LINE718,52.293153,-0.833596,0.000000,0.158123,0.000000,-1.421631
LINE719,0.000000,2.821765,0.000000,1.593637,0.000000,2.693103
LINE720,0.000000,-0.463175,25.612522,3.325722,0.000000,1.665652
LINE721,78.304793,-0.835102,0.000000,0.150158,0.000000,2.440350
LINE722,0.000000,2.142583,0.000000,-0.280700,24.508354,1.247530
LINE723,52.544549,-0.830191,52.552867,3.326087,49.193315,1.246441
LINE724,0.000000,4.538233,52.107562,3.325882,0.000000,2.303535
LINE725,52.293153,-0.833596,0.000000,0.151911,0.000000,-1.387280
LINE726,0.000000,2.643621,0.000000,1.312508,0.000000,1.982880
LINE727,0.000000,-0.233597,25.612522,3.325722,0.000000,1.642151
LINE728,78.304793,-0.835102,0.000000,0.060593,0.000000,1.652382
LINE729,0.000000,2.251351,0.000000,-0.220360,24.508354,1.247530
LINE730,52.544549,-0.830191,52.552867,3.326087,49.193315,1.246441
LINE731,0.000000,4.499428,52.107562,3.325882,0.000000,2.107128
LINE732,52.293153,-0.833596,0.000000,0.049354,0.000000,-1.271406
LINE733,0.000000,2.711154,0.000000,1.355356,0.000000,2.327099
LINE734,0.000000,-0.407920,25.612522,3.325722,0.000000,1.682928
LINE735,78.304793,-0.835102,0.000000,0.091517,0.000000,1.922544
LINE736,0.000000,1.447202,0.000000,-0.334926,24.508354,1.247530
LINE737,52.544549,-0.830191,52.552867,3.326087,49.193315,1.246441
LINE738,0.000000,4.490767,52.107562,3.325882,0.000000,2.400314
LINE739,52.293153,-0.833596,0.000000,0.010440,0.000000,-1.258845
LINE740,0.000000,2.562336,0.000000,1.196964,0.000000,1.886764
LINE741,0.000000,-0.293498,25.612522,3.325722,0.000000,1.546974
LINE742,78.304793,-0.835102,0.000000,0.039921,0.000000,1.639780
LINE743,0.000000,-0.976511,0.000000,-0.976511,24.508354,1.247530
LINE744,52.544549,-0.830191,52.552867,3.326087,49.193315,1.246441
LINE745,0.000000,1.284686,26.055556,3.325899,0.000000,-1.194851
LINE746,0.000000,4.385061,26.052005,3.325865,0.000000,2.141442
LINE747,52.293153,-0.833596,0.000000,0.064338,0.000000,-1.306486
LINE748,0.000000,2.541075,0.000000,1.107961,0.000000,2.225364
LINE749,0.000000,-0.188939,25.612522,3.325722,0.000000,1.546464
LINE750,78.304793,-0.835102,0.000000,0.178490,0.000000,1.523745
LINE751,0.000000,-0.025153,0.000000,3.941658,24.508354,1.247530
LINE752,52.544549,-0.830191,52.552867,3.326087,0.000000,-0.674595
LINE753,0.000000,-0.457644,0.000000,4.530860,49.193315,1.246441
LINE754,0.000000,2.713350,26.055556,3.325899,0.000000,1.529542
LINE755,0.000000,4.458338,26.052005,3.325865,0.000000,2.133103
LINE756,52.293153,-0.833596,0.000000,0.121281,0.000000,-1.437070
LINE757,0.000000,2.517865,0.000000,0.962490,0.000000,2.549648
LINE758,0.000000,0.117735,25.612522,3.325722,0.000000,-1.552570
LINE759,78.304793,-0.835102,0.000000,0.050498,0.000000,4.690773
LINE760,0.000000,-1.231399,0.000000,2.725620,24.508354,1.247530
LINE761,52.544549,-0.830191,52.552867,3.326087,0.000000,-0.526568
LINE762,0.000000,-0.459876,0.000000,4.547671,49.193315,1.246441
LINE763,0.000000,3.746748,26.052005,3.325865,0.000000,1.975671
LINE764,52.293153,-0.833596,0.000000,0.157135,0.000000,-1.311820
LINE765,0.000000,2.707029,0.000000,0.626456,0.000000,2.724949
LINE766,0.000000,-0.433461,25.612522,3.325722,0.000000,1.563627
LINE767,78.304793,-0.835102,0.000000,0.100362,0.000000,4.671708
LINE768,0.000000,-0.722026,0.000000,3.078685,24.508354,1.247530
LINE769,52.544549,-0.830191,52.552867,3.326087,0.000000,-0.666143
LINE770,0.000000,0.580433,0.000000,3.171322,24.598808,1.246462
LINE771,0.000000,-0.515034,0.000000,4.220358,24.594507,1.246419
LINE772,0.000000,3.306928,26.052005,3.325865,0.000000,1.645437
LINE773,52.293153,-0.833596,0.000000,0.279222,0.000000,-1.224519
LINE774,0.000000,2.317807,0.000000,0.530410,0.000000,2.323582
LINE775,0.000000,3.279603,25.612522,3.325722,0.000000,1.761182
LINE776,78.304793,-0.835102,0.000000,0.191864,0.000000,4.634432
LINE777,0.000000,-0.061908,0.000000,-1.036789,24.508354,1.247530
LINE778,52.544549,-0.830191,52.552867,3.326087,0.000000,-0.654608
LINE779,0.000000,-1.074223,0.000000,0.402423,24.598808,1.246462
LINE780,0.000000,-0.541513,0.000000,4.094332,24.594507,1.246419
LINE781,0.000000,3.380778,26.052005,3.325865,0.000000,1.614961
LINE782,52.293153,-0.833596,0.000000,0.260154,0.000000,-1.248836
LINE783,0.000000,1.821142,0.000000,0.926986,0.000000,-1.361996
LINE784,0.000000,3.415808,25.612522,3.325722,0.000000,4.257520
LINE785,78.304793,-0.835102,0.000000,0.178566,0.000000,4.643914
LINE786,52.544549,-0.830191,52.552867,3.326087,0.000000,-0.597175
LINE787,0.000000,-1.052944,0.000000,3.694388,24.594507,1.246419
LINE788,0.000000,3.691612,26.052005,3.325865,0.000000,-1.280253
LINE789,52.293153,-0.833596,0.000000,0.262409,0.000000,-0.994652
LINE790,0.000000,0.666619,0.000000,1.588140,0.000000,0.754574
LINE791,52.203134,-0.835103,0.000000,0.108455,0.000000,4.575687
LINE792,26.101659,-0.835102,0.000000,-0.830230,0.000000,4.693135
LINE793,52.544549,-0.830191,52.552867,3.326087,0.000000,-0.523908
LINE794,0.000000,-1.142750,0.000000,3.555116,24.594507,1.246419
LINE795,0.000000,3.428123,26.052005,3.325865,0.000000,0.840508
LINE796,52.293153,-0.833596,0.000000,0.464441,0.000000,-1.324485
LINE797,0.000000,1.812596,0.000000,1.057713,0.000000,0.282910
LINE798,52.203134,-0.835103,0.000000,0.374062,0.000000,1.793798
LINE799,26.101659,-0.835102,0.000000,-1.521428,0.000000,4.681549
LINE800,52.544549,-0.830191,0.000000,2.898494,0.000000,1.320673
LINE801,0.000000,4.280798,52.552867,3.326087,0.000000,-1.290566
LINE802,0.000000,-0.924734,0.000000,3.680879,24.594507,1.246419
LINE803,0.000000,-0.095316,26.052005,3.325865,0.000000,1.653312
LINE804,52.293153,-0.833596,0.000000,0.552861,0.000000,-1.442946
LINE805,0.000000,-0.451466,0.000000,2.477972,0.000000,1.288309
LINE806,52.203134,-0.835103,0.000000,0.456872,0.000000,4.578295
LINE807,26.101659,-0.835102,0.000000,-0.367324,0.000000,-1.494747
LINE808,52.544549,-0.830191,0.000000,2.181063,0.000000,1.150848
LINE809,0.000000,4.404039,52.552867,3.326087,0.000000,-1.304783
LINE810,0.000000,-1.409912,0.000000,1.270478,0.000000,4.403443
LINE811,0.000000,-1.097037,0.000000,-1.097037,24.594507,1.246419
LINE812,0.000000,3.012826,26.052005,3.325865,0.000000,1.685842
LINE813,52.293153,-0.833596,0.000000,0.471737,0.000000,-1.434084
LINE814,0.000000,0.276924,0.000000,3.282523,0.000000,1.200727
LINE815,52.203134,-0.835103,0.000000,-0.115554,0.000000,4.606219
LINE816,26.101659,-0.835102,0.000000,-0.179388,0.000000,-1.510678
LINE817,52.544549,-0.830191,0.000000,2.420419,0.000000,0.943635
LINE818,0.000000,4.540356,52.552867,3.326087,0.000000,-1.273096
LINE819,0.000000,0.629093,0.000000,-1.535874,0.000000,4.187378
LINE820,0.000000,-0.057691,0.000000,3.051134,24.594507,1.246419
LINE821,52.293153,-0.833596,0.000000,0.449429,0.000000,-1.372033
LINE822,0.000000,-0.381855,0.000000,3.359239,0.000000,1.156352
LINE823,52.203134,-0.835103,0.000000,-0.558874,0.000000,1.754094
LINE824,52.544549,-0.830191,0.000000,1.941876,0.000000,-1.325257
LINE825,0.000000,4.637948,52.552867,3.326087,0.000000,-1.255962
LINE826,0.000000,1.475897,0.000000,1.475897,0.000000,1.572678
LINE827,0.000000,3.388233,0.000000,4.100672,24.594507,1.246419
LINE828,52.293153,-0.833596,0.000000,0.624579,0.000000,-1.391158
LINE829,0.000000,-1.485845,0.000000,-1.485845,0.000000,2.060928
LINE830,52.203134,-0.835103,0.000000,-0.769255,0.000000,2.185929
LINE831,52.544549,-0.830191,0.000000,0.509796,0.000000,-1.343607
LINE832,0.000000,-1.499088,52.552867,3.326087,0.000000,-1.303493
LINE833,0.000000,2.939912,0.000000,2.939912,0.000000,-0.145406
LINE834,0.000000,4.323064,0.000000,2.789629,24.594507,1.246419
LINE835,52.293153,-0.833596,0.000000,0.646628,0.000000,-1.380802
LINE836,52.203134,-0.835103,0.000000,-0.834399,0.000000,1.661529
LINE837,52.544549,-0.830191,0.000000,0.334650,0.000000,-1.360966
LINE838,0.000000,-1.350485,52.552867,3.326087,0.000000,-1.420056
LINE839,0.000000,2.939912,0.000000,2.939912,0.000000,-0.145406
LINE840,52.293153,-0.833596,0.000000,0.649293,0.000000,-1.391493
LINE841,52.203134,-0.835103,0.000000,-1.249540,0.000000,1.648246
LINE842,52.544549,-0.830191,0.000000,0.557542,0.000000,-1.472627
LINE843,0.000000,-0.869309,52.552867,3.326087,0.000000,-1.460998
LINE844,0.000000,2.741575,0.000000,1.838546,0.000000,-1.443407
LINE845,0.000000,2.204277,0.000000,0.183127,0.000000,4.289715
LINE846,52.293153,-0.833596,0.000000,0.557195,0.000000,-1.395892
LINE847,52.203134,-0.835103,0.000000,3.832995,0.000000,1.604751
LINE848,52.544549,-0.830191,0.000000,1.699750,0.000000,-1.416773
LINE849,0.000000,-0.824353,52.552867,3.326087,0.000000,-1.462039
LINE850,0.000000,2.809673,0.000000,1.917742,0.000000,-1.352250
LINE851,0.000000,-0.473587,0.000000,3.861251,0.000000,2.229824
LINE852,52.293153,-0.833596,0.000000,0.544266,0.000000,-1.436273
LINE853,52.203134,-0.835103,0.000000,-1.487373,0.000000,1.573511
LINE854,52.544549,-0.830191,0.000000,1.131656,0.000000,-1.464519
LINE855,0.000000,-0.852917,52.552867,3.326087,0.000000,-1.495903
LINE856,0.000000,2.881918,0.000000,1.845303,0.000000,-1.305025
LINE857,0.000000,3.914661,0.000000,1.559299,0.000000,1.189345
LINE858,52.293153,-0.833596,0.000000,0.289324,0.000000,-1.514024
LINE859,26.093375,-0.835180,0.000000,-1.514828,0.000000,1.550883
LINE860,26.109759,-0.835025,0.000000,0.218669,0.000000,1.033183
LINE861,52.544549,-0.830191,0.000000,1.042435,0.000000,-1.453171
LINE862,0.000000,-0.781609,52.552867,3.326087,0.000000,-1.502090
LINE863,0.000000,3.011610,0.000000,2.206928,0.000000,-1.144095
LINE864,0.000000,1.463569,0.000000,1.631359,0.000000,4.680899
LINE865,52.293153,-0.833596,0.000000,0.084359,0.000000,-1.517754
LINE866,52.544549,-0.830191,0.000000,1.052705,0.000000,-1.448008
LINE867,0.000000,-0.929689,52.552867,3.326087,0.000000,-0.067519
LINE868,0.000000,2.806676,0.000000,2.590384,0.000000,-0.587204
LINE869,0.000000,-0.201681,0.000000,-0.201681,0.000000,2.996186
LINE870,52.293153,-0.833596,0.000000,0.436855,0.000000,-1.512386
LINE871,52.544549,-0.830191,0.000000,1.186355,0.000000,-1.440138
LINE872,0.000000,-0.852917,26.279942,3.326121,0.000000,1.302879
LINE873,0.000000,1.503278,26.272925,3.326053,0.000000,0.000000
LINE874,0.000000,1.559172,0.000000,3.237284,0.000000,1.077416
LINE875,0.000000,4.227657,0.000000,4.227657,0.000000,0.461787
LINE876,52.293153,-0.833596,0.000000,0.806675,0.000000,4.710154
LINE877,52.544549,-0.830191,0.000000,1.136676,0.000000,-1.440788
LINE878,0.000000,-0.852917,26.279942,3.326121,0.000000,1.287920
LINE879,0.000000,-0.531166,26.272925,3.326053,0.000000,4.691711
LINE880,0.000000,-0.886364,0.000000,3.369248,0.000000,1.337570
LINE881,0.000000,0.000000,0.000000,0.000000,0.000000,0.000000
LINE882,52.293153,-0.833596,0.000000,0.171599,0.000000,4.683240
LINE883,52.544549,-0.830191,0.000000,1.022887,0.000000,-1.437652
LINE884,0.000000,-0.067519,26.279942,3.326121,0.000000,-1.437916
LINE885,0.000000,0.000000,26.272925,3.326053,0.000000,-0.067519
LINE886,52.293153,-0.833596,0.000000,0.332658,0.000000,4.635907
LINE887,26.273411,-0.830162,0.000000,0.908044,0.000000,-1.463871
LINE888,26.271139,-0.830221,0.000000,3.373785,0.000000,2.140401
LINE889,0.000000,3.074074,26.279942,3.326121,0.000000,4.707289
LINE890,52.293153,-0.833596,0.000000,3.284998,0.000000,1.702148
LINE891,26.273411,-0.830162,0.000000,0.999918,0.000000,-1.456178
LINE892,26.271139,-0.830221,0.000000,2.986279,0.000000,4.430661
LINE893,0.000000,3.074074,26.279942,3.326121,0.000000,-0.067519
LINE894,26.157879,-0.833489,0.000000,-0.196047,0.000000,1.614906
LINE895,26.135275,-0.833703,0.000000,0.114608,0.000000,4.577959
LINE896,26.273411,-0.830162,0.000000,0.571560,0.000000,-1.486200
LINE897,26.271139,-0.830221,0.000000,-1.210700,0.000000,-1.491286
LINE898,0.000000,0.000000,26.279942,3.326121,0.000000,-0.067519
LINE899,26.157879,-0.833489,0.000000,-0.070022,0.000000,2.966089
LINE900,26.273411,-0.830162,0.000000,1.869677,0.000000,-1.361672
LINE901,26.273411,-0.830162,0.000000,2.128284,0.000000,-1.567055
LINE902,26.273411,-0.830162,0.000000,1.411381,0.000000,2.020098
LINE903,26.273411,-0.830162,0.000000,0.160516,0.000000,1.868278
LINE904,26.273411,-0.830162,0.000000,-0.276486,0.000000,1.618267
LINE905,26.273411,-0.830162,0.000000,0.053038,0.000000,4.677665
